Version 4
SHEET 1 4208 3584
WIRE 272 448 272 384
WIRE 416 448 416 384
WIRE -832 464 -832 432
WIRE -640 464 -640 432
WIRE -448 464 -448 432
WIRE -256 464 -256 432
WIRE 272 608 272 528
WIRE 416 608 416 528
WIRE -464 1056 -480 1056
WIRE -448 1056 -464 1056
WIRE -480 1120 -480 1056
WIRE -448 1168 -448 1056
WIRE -448 1168 -480 1168
WIRE -528 1200 -1264 1200
WIRE -480 1280 -480 1216
WIRE 768 1280 -480 1280
WIRE -1264 1296 -1264 1200
WIRE -1264 1296 -1952 1296
WIRE -480 1440 -896 1440
WIRE -464 1440 -480 1440
WIRE -480 1520 -480 1440
WIRE -448 1568 -480 1568
WIRE -528 1600 -816 1600
WIRE -816 1632 -816 1600
WIRE -816 1632 -1840 1632
WIRE -480 1648 -480 1616
WIRE 768 1664 768 1280
WIRE 768 1664 -480 1648
WIRE 768 1776 768 1664
WIRE 880 1776 768 1776
WIRE 992 1776 880 1776
WIRE -1952 1792 -1952 1296
WIRE -1952 1792 -2048 1792
WIRE -480 1792 -480 1648
WIRE -480 1808 -480 1792
WIRE -1840 1824 -1840 1632
WIRE -1840 1824 -2048 1824
WIRE 880 1824 880 1776
WIRE -448 1840 -480 1840
WIRE -1648 1856 -2048 1856
WIRE -1648 1872 -1648 1856
WIRE -528 1872 -1648 1872
WIRE -2208 1888 -2320 1888
WIRE -1696 1888 -2048 1888
WIRE -2208 1920 -2320 1920
WIRE -1776 1920 -2048 1920
WIRE -1856 1952 -2048 1952
WIRE -480 1952 -480 1888
WIRE -448 1952 -480 1952
WIRE 880 1968 880 1888
WIRE -896 2064 -896 1440
WIRE -448 2064 -448 1952
WIRE -448 2064 -896 2064
WIRE -480 2144 -1168 2144
WIRE -480 2224 -480 2144
WIRE -448 2272 -480 2272
WIRE -528 2304 -928 2304
WIRE -1696 2368 -1696 1888
WIRE -928 2368 -928 2304
WIRE -928 2368 -1696 2368
WIRE -480 2464 -480 2320
WIRE 768 2464 768 1776
WIRE 768 2464 -480 2464
WIRE -480 2528 -480 2464
WIRE -480 2544 -480 2528
WIRE -448 2576 -480 2576
WIRE -1776 2608 -1776 1920
WIRE -528 2608 -1776 2608
WIRE -1168 2816 -1168 2144
WIRE -480 2816 -480 2624
WIRE -480 2816 -1168 2816
WIRE -480 2832 -480 2816
WIRE 768 3040 768 2464
WIRE 768 3040 -480 3040
WIRE -480 3104 -480 3040
WIRE -480 3120 -480 3104
WIRE -448 3152 -480 3152
WIRE -1856 3184 -1856 1952
WIRE -528 3184 -1856 3184
WIRE -480 3248 -480 3200
FLAG -832 544 0
FLAG -640 544 0
FLAG -448 544 0
FLAG -256 544 0
FLAG -832 432 V1
IOPIN -832 432 Out
FLAG -640 432 V2
IOPIN -640 432 Out
FLAG -448 432 V3
IOPIN -448 432 Out
FLAG -256 432 V4
IOPIN -256 432 Out
FLAG 880 1968 0
FLAG 416 608 0
FLAG 272 608 0
FLAG -464 1440 V3
IOPIN -464 1440 In
FLAG -480 3248 V1
IOPIN -480 3248 In
FLAG -480 2832 V2
IOPIN -480 2832 In
FLAG 992 1776 V_row
IOPIN 992 1776 Out
FLAG -464 1056 V4
IOPIN -464 1056 In
FLAG 416 384 D0
IOPIN 416 384 In
FLAG 272 384 D1
IOPIN 272 384 In
FLAG -448 2576 0
FLAG -448 1840 0
FLAG -448 3152 0
FLAG -448 1568 V4
IOPIN -448 1568 In
FLAG -448 2272 V4
IOPIN -448 2272 In
FLAG -2320 1888 D0
IOPIN -2320 1888 In
FLAG -2320 1920 D1
IOPIN -2320 1920 In
SYMBOL Voltage -832 448 R0
SYMATTR InstName V1
SYMATTR Value 0
SYMBOL Voltage -640 448 R0
SYMATTR InstName V2
SYMATTR Value 0.3
SYMBOL Voltage -448 448 R0
SYMATTR InstName V3
SYMATTR Value 0.6
SYMBOL Voltage -256 448 R0
SYMATTR InstName V4
SYMATTR Value 0.9
SYMBOL Cap 864 1824 R0
SYMATTR InstName C1
SYMATTR Value 200f ic=0
SYMBOL Voltage 272 432 R0
SYMATTR InstName V5
SYMATTR Value {inp1}
SYMBOL Voltage 416 432 R0
SYMATTR InstName V6
SYMATTR Value {inp0}
SYMBOL pmos4 -528 1120 R0
WINDOW 0 -6 17 Right 1
WINDOW 3 3 47 Right 1
WINDOW 123 3 69 Right 1
WINDOW 39 3 91 Right 1
SYMATTR InstName P1
SYMATTR Value PMOS22
SYMATTR Value2 l={PL} w={PW}
SYMATTR SpiceLine delvto={gc({-Vt0_p}, {sig_p})}
SYMBOL nmos4 -528 2528 R0
WINDOW 0 -2 32 Right 1
WINDOW 3 -2 64 Right 1
WINDOW 123 -2 86 Right 1
WINDOW 39 -2 108 Right 1
SYMATTR InstName N1
SYMATTR Value NMOS22
SYMATTR Value2 l={NL} w={NW}
SYMATTR SpiceLine delvto={gc({Vt0_n}, {sig_n})}
SYMBOL pmos4 -528 1520 R0
WINDOW 0 -6 17 Right 1
WINDOW 3 3 47 Right 1
WINDOW 123 3 69 Right 1
WINDOW 39 3 91 Right 1
SYMATTR InstName P2
SYMATTR Value PMOS22
SYMATTR Value2 l={PL} w={PW}
SYMATTR SpiceLine delvto={gc({-Vt0_p}, {sig_p})}
SYMBOL nmos4 -528 3104 R0
WINDOW 0 -2 32 Right 1
WINDOW 3 -2 64 Right 1
WINDOW 123 -2 86 Right 1
WINDOW 39 -2 108 Right 1
SYMATTR InstName N2
SYMATTR Value NMOS22
SYMATTR Value2 l={NL} w={NW}
SYMATTR SpiceLine delvto={gc({Vt0_n}, {sig_n})}
SYMBOL pmos4 -528 2224 R0
WINDOW 0 -6 17 Right 1
WINDOW 3 3 47 Right 1
WINDOW 123 3 69 Right 1
WINDOW 39 3 91 Right 1
SYMATTR InstName P3
SYMATTR Value PMOS22
SYMATTR Value2 l={PL} w={PW}
SYMATTR SpiceLine delvto={gc({-Vt0_p}, {sig_p})}
SYMBOL nmos4 -528 1792 R0
WINDOW 0 -2 32 Right 1
WINDOW 3 -2 64 Right 1
WINDOW 123 -2 86 Right 1
WINDOW 39 -2 108 Right 1
SYMATTR InstName N3
SYMATTR Value NMOS22
SYMATTR Value2 l={NL} w={NW}
SYMATTR SpiceLine delvto={gc({Vt0_n}, {sig_n})}
SYMBOL Control_signals -2128 1904 R0
SYMATTR InstName X1
TEXT -904 304 Left 2 ;REFERENCE VOLTAGES
TEXT 1288 2304 Left 2 !.param VDD=1.5
TEXT 1816 1640 Left 2 !.tran 15n
TEXT 1824 1608 Left 2 !.step param MC_runs 1 100 1
TEXT 1456 1336 Left 2 !.param sigma_CAP = 0.05
TEXT 1024 1200 Left 2 !.param PW= 88n\n.param NW= 44n\n.param PL = 22n\n.param NL = 22n
TEXT 1024 1152 Left 2 !.inc 22nm_HP.pm
TEXT 1456 1152 Left 2 !.param Vt0_n = 0.50308\n.param Vt0_p = 0.4606\n.param sigma_MOS = 0.1\n.param Lmin = 22n\n.param Wmin = 44n\n.param sig_n = {(sigma_MOS*sqrt(Lmin*Wmin))/sqrt(NL*NW)}\n.param sig_p = {(sigma_MOS*sqrt(Lmin*Wmin))/sqrt(PL*PW)}
TEXT 152 680 Left 2 ;V(D1) - msb of input \nV(D0) -   lsb of input
TEXT 1456 1376 Left 2 !.func gc(mean, sigma) {mean *gauss(sigma)}
TEXT 256 792 Left 2 !.param inp1=0\n.param inp0=1
TEXT 1032 1440 Left 2 !.param PW_inv=100n\n.param NW_inv=100n
RECTANGLE Normal -900 320 -112 648 2
